results/2026-03-03/bilevel_comparisons_single_period/solution_bus_motivation_c_equality_min.csv
bus_id,vm_avg,z_voltage
1,1.0012913357941275,1.0
2,1.0012913467595586,1.0
3,1.0001511475245077,1.0
4,0.9993235713330316,1.0
5,1.0012916039025863,1.0
6,1.014889156509222,1.0
7,1.0003494477623016,1.0
8,1.0026606021551525,1.0
9,1.0026606028215743,1.0
10,1.0026606005175906,1.0
11,1.0006045983253122,1.0
12,1.0012913357941275,1.0
13,1.0012913357941275,1.0
14,1.0019202047156146,1.0
15,1.0012913357941275,1.0
16,1.0026606028215743,1.0
17,1.0003494477623016,1.0
18,1.0012913357941275,1.0
19,1.0026606028215743,1.0
20,1.0012916039025863,1.0
